<?xml version="1.0" encoding="UTF-8"?>

<!-- generated on 2024-09-16 13:11:32 by Eclipse SUMO polyconvert Version 1.11.0
<configuration xmlns:xsi="http://www.w3.org/2001/XMLSchema-instance" xsi:noNamespaceSchemaLocation="http://sumo.dlr.de/xsd/polyconvertConfiguration.xsd">

    <input>
        <net-file value="map.net.xml"/>
        <osm-files value="map.osm"/>
    </input>

    <output>
        <output-file value="map.poly.xml"/>
    </output>

    <processing>
        <poi-layer-offset value="5"/>
    </processing>

</configuration>
-->

<additional xmlns:xsi="http://www.w3.org/2001/XMLSchema-instance" xsi:noNamespaceSchemaLocation="http://sumo.dlr.de/xsd/additional_file.xsd">
    <location netOffset="-796648.54,-3386692.90" convBoundary="-11002.77,-2573.97,21058.94,23226.13" origBoundary="113.982800,30.555329,114.316322,30.784445" projParameter="+proj=utm +zone=49 +ellps=WGS84 +datum=WGS84 +units=m +no_defs"/>

    <poly id="1019356655" type="landuse" color="194,194,130" fill="1" layer="-3.00" shape="7450.848735,7475.368755 7572.318505,7278.020616 7306.074933,7186.990868 7244.256352,7395.836954 7450.848735,7475.368755"/>
    <poly id="1028140112" type="residential" color="235,235,227" fill="1" layer="-3.00" shape="4067.489064,6485.855494 4078.416201,6497.003995 4264.641097,6484.726549 4269.833888,6437.314167 4233.028747,6433.843944 4246.829483,6355.207581 4285.171738,6353.482241 4296.139790,6262.891233 4136.957833,6250.397165 4097.377058,6434.593526 4080.931007,6432.391706 4067.489064,6485.855494"/>
    <poly id="1028140113" type="school" color="237,199,199" fill="1" layer="-2.00" shape="4296.139790,6262.891233 4285.171738,6353.482241 4246.829483,6355.207581 4233.028747,6433.843944 4269.833888,6437.314167 4264.641097,6484.726549 4261.998065,6554.229817 4266.560822,6654.699810 4470.469625,6638.369998 4500.267170,6339.218610 4303.359289,6343.857531 4309.134373,6263.254410 4296.139790,6262.891233"/>
    <poly id="1032377585" type="residential" color="235,235,227" fill="0" layer="-3.00" shape="10149.073453,10390.009254 10158.842764,10381.197649 10179.128178,10382.797619 10183.209854,10394.091123 10714.556436,10445.339722 10660.769814,10603.078601 10620.165149,10672.931995 10613.386117,10680.840811 10592.979823,10710.348084 10553.257451,10747.672371 10509.355753,10777.485184 10457.057839,10801.974792 10419.639669,10810.384853 10403.264077,10811.326765 10384.551313,10813.478381 10384.517808,10823.722139 10313.566288,10834.538033 10283.092609,10784.209255 10256.182450,10726.334871 10221.541853,10701.970855"/>
    <poly id="1032377586" type="residential" color="235,235,227" fill="1" layer="-3.00" shape="10669.297803,10848.829904 10691.771859,10826.196919 10736.616997,10762.059126 10783.634586,10686.051724 10823.500149,10584.710863 10865.824068,10446.079767 11131.193812,10538.605502 10948.918763,10740.704453 10729.484299,10984.009809 10714.564782,10953.492742 10669.297803,10848.829904"/>
    <poly id="1032377588" type="residential" color="235,235,227" fill="1" layer="-3.00" shape="12549.961233,11233.623052 12433.527181,11133.485990 12077.166710,11078.081566 12235.223083,11174.237854 12015.226421,11157.596049 11991.973771,11244.681487 12302.865256,11302.650468 12549.961233,11233.623052"/>
    <poly id="1032377589" type="residential" color="235,235,227" fill="1" layer="-3.00" shape="11567.357388,11263.465704 11485.942096,11163.067504 11984.830076,11177.379568 11933.300187,11255.905756 11567.357388,11263.465704"/>
    <poly id="1032377591" type="industrial" color="209,209,204" fill="1" layer="-3.00" shape="11494.136146,11510.428191 11450.005436,11511.738181 11414.584264,11616.534394 11258.906601,11573.358395 11289.614108,11225.825487 11468.656262,11223.219669 11494.136146,11510.428191"/>
    <poly id="1055721990" type="leisure" color="207,245,201" fill="1" layer="-2.00" shape="12064.183128,7040.012827 12071.203322,7064.300027 12082.850686,7089.219411 12102.149428,7116.411661 12124.252911,7135.492978 12150.568082,7151.620601 12158.330358,7186.162917 12269.781997,7159.647229 12300.167053,7177.423773 12564.342736,6745.444640 12577.879820,6722.258005 12586.276233,6698.934835 12589.596249,6672.901874 12585.460727,6637.431071 12578.187722,6603.923582 12568.529445,6581.613631 12554.786129,6558.165229 12539.278311,6542.347059 12515.023952,6526.277778 12488.613999,6513.742919 12454.874795,6505.082354 12419.365505,6504.584734 12397.626083,6508.567058 12375.295272,6515.096439 12347.385339,6500.976066 12076.626784,6947.133982 12068.217004,6970.967608 12062.939123,6993.359316 12061.873044,7012.797242 12064.183128,7040.012827"/>
    <poly id="1055721990#1" type="sport" color="79,230,125" fill="1" layer="-2.00" shape="12064.183128,7040.012827 12071.203322,7064.300027 12082.850686,7089.219411 12102.149428,7116.411661 12124.252911,7135.492978 12150.568082,7151.620601 12158.330358,7186.162917 12269.781997,7159.647229 12300.167053,7177.423773 12564.342736,6745.444640 12577.879820,6722.258005 12586.276233,6698.934835 12589.596249,6672.901874 12585.460727,6637.431071 12578.187722,6603.923582 12568.529445,6581.613631 12554.786129,6558.165229 12539.278311,6542.347059 12515.023952,6526.277778 12488.613999,6513.742919 12454.874795,6505.082354 12419.365505,6504.584734 12397.626083,6508.567058 12375.295272,6515.096439 12347.385339,6500.976066 12076.626784,6947.133982 12068.217004,6970.967608 12062.939123,6993.359316 12061.873044,7012.797242 12064.183128,7040.012827"/>
    <poly id="1055721991" type="leisure" color="207,245,201" fill="1" layer="-2.00" shape="12142.317472,7116.032038 12162.071274,7127.354089 12180.398467,7134.539538 12197.249800,7139.640371 12221.425904,7140.333996 12240.017485,7138.303448 12264.902401,7132.357801 12286.846440,7121.199838 12304.720375,7108.393372 12319.017821,7094.463129 12549.500256,6724.517542 12558.345969,6703.260674 12563.033510,6683.416129 12565.151172,6663.486681 12564.283299,6639.897443 12560.624797,6623.908943 12552.895955,6606.271823 12544.043424,6591.665915 12532.117085,6576.472274 12519.638473,6562.794528 12502.986943,6551.039301 12478.570814,6540.604019 12447.885153,6533.573965 12420.072032,6533.807842 12389.977026,6541.646062 12370.152587,6550.811369 12353.347828,6562.116776 12339.049724,6576.047024 12324.145304,6593.045553 12107.453261,6949.549742 12097.040077,6971.283591 12091.835605,6991.113414 12089.816814,7007.960040 12090.211610,7030.003846 12098.687953,7057.396289 12111.317177,7083.886699 12123.243078,7099.090972 12142.317472,7116.032038"/>
    <poly id="1055721991#1" type="sport" color="79,230,125" fill="1" layer="-2.00" shape="12142.317472,7116.032038 12162.071274,7127.354089 12180.398467,7134.539538 12197.249800,7139.640371 12221.425904,7140.333996 12240.017485,7138.303448 12264.902401,7132.357801 12286.846440,7121.199838 12304.720375,7108.393372 12319.017821,7094.463129 12549.500256,6724.517542 12558.345969,6703.260674 12563.033510,6683.416129 12565.151172,6663.486681 12564.283299,6639.897443 12560.624797,6623.908943 12552.895955,6606.271823 12544.043424,6591.665915 12532.117085,6576.472274 12519.638473,6562.794528 12502.986943,6551.039301 12478.570814,6540.604019 12447.885153,6533.573965 12420.072032,6533.807842 12389.977026,6541.646062 12370.152587,6550.811369 12353.347828,6562.116776 12339.049724,6576.047024 12324.145304,6593.045553 12107.453261,6949.549742 12097.040077,6971.283591 12091.835605,6991.113414 12089.816814,7007.960040 12090.211610,7030.003846 12098.687953,7057.396289 12111.317177,7083.886699 12123.243078,7099.090972 12142.317472,7116.032038"/>
    <poly id="1055721992" type="landuse" color="194,194,130" fill="1" layer="-3.00" shape="11783.213364,7430.019257 12298.175512,7304.000997 12321.569869,7292.795964 12342.560790,7279.057893 12361.784125,7255.013158 12374.939998,7235.711358 12804.046068,6520.750166 12369.062177,6247.985480 11787.585245,7205.757853 11773.327314,7236.094837 11760.662326,7275.823213 11759.098484,7301.262759 11761.482560,7325.916360 11771.185114,7382.546302 11783.213364,7430.019257"/>
    <poly id="1055721993" type="landuse" color="194,194,130" fill="1" layer="-3.00" shape="12310.462773,7087.557892 12538.144515,6725.223693 12553.739961,6684.170392 12555.613664,6655.021325 12548.863846,6621.007210 12528.212100,6587.115589 12509.689421,6568.658001 12481.824031,6552.995689 12447.590984,6543.821477 12424.395743,6544.687382 12399.020792,6549.597595 12372.931962,6561.657662 12351.304407,6579.473265 12337.538528,6592.919309 12323.498948,6615.570104 12112.597392,6967.634048 12107.886528,6987.988601 12108.622943,7016.191326 12115.594126,7042.519464 12128.135220,7072.081927 12152.153944,7096.335097 12172.401408,7108.181901 12191.676207,7118.469113 12218.319675,7122.818650 12238.405979,7122.884391 12266.413207,7115.496600 12290.389833,7105.418122 12310.462773,7087.557892"/>
    <poly id="1055721996" type="leisure" color="207,245,201" fill="1" layer="-2.00" shape="12152.779074,6953.413724 12272.765698,7024.230026 12281.985714,7026.026333 12293.309227,7026.095990 12305.734661,7023.888584 12316.220750,7017.019235 12322.883221,7009.274291 12327.254517,7000.431338 12328.877609,6988.690236 12329.371440,6980.512967 12333.124348,6975.492700 12340.216018,6979.547767 12346.145978,6970.238978 12233.263535,6902.700261 12220.906441,6902.856317 12209.235743,6905.851351 12197.711634,6912.435740 12189.751461,6920.920495 12183.755451,6932.536159 12182.213645,6941.449225 12182.015445,6948.358526 12184.047639,6958.151082 12158.464574,6943.587259 12152.779074,6953.413724"/>
    <poly id="1055721997" type="leisure" color="207,245,201" fill="1" layer="-2.00" shape="12199.479884,6967.562182 12275.150881,7013.021368 12284.842260,7016.118745 12295.928813,7015.415738 12306.380570,7010.077127 12313.795597,7002.864352 12317.910227,6994.269320 12319.814200,6981.770412 12318.282768,6972.258576 12313.634372,6963.667345 12305.567788,6957.797298 12231.647867,6914.186290 12221.106405,6913.617470 12210.728108,6916.394291 12202.330874,6922.047226 12196.985065,6929.064145 12193.632680,6938.191659 12191.853569,6946.343151 12192.393296,6954.294776 12194.249631,6961.518305 12199.479884,6967.562182"/>
    <poly id="1079107463" type="leisure" color="207,245,201" fill="1" layer="-2.00" shape="10989.782002,9838.202892 10991.614396,9739.592604 11058.755525,9741.513331 11058.925440,9839.204215 10989.782002,9838.202892"/>
    <poly id="1079107463#1" type="sport" color="79,230,125" fill="1" layer="-2.00" shape="10989.782002,9838.202892 10991.614396,9739.592604 11058.755525,9741.513331 11058.925440,9839.204215 10989.782002,9838.202892"/>
    <poly id="1079107464" type="leisure" color="207,245,201" fill="1" layer="-2.00" shape="10986.748051,9837.261452 10989.596161,9737.692371 10994.744214,9726.784610 11000.289523,9720.438974 11008.139362,9715.713180 11015.821037,9712.170219 11026.530281,9712.476574 11039.186562,9713.482408 11046.502160,9718.375653 11056.119979,9724.633403 11061.844816,9734.819970 11063.149037,9739.541241 11061.134961,9837.436028 11058.298340,9845.024570 11053.576658,9854.779063 11047.262411,9860.836283 11033.086666,9867.334557 11022.351559,9867.937590 11009.347431,9865.345687 11001.295958,9859.010681 10993.889439,9852.938318 10989.678826,9844.493310 10986.748051,9837.261452"/>
    <poly id="1079107464#1" type="sport" color="79,230,125" fill="1" layer="-2.00" shape="10986.748051,9837.261452 10989.596161,9737.692371 10994.744214,9726.784610 11000.289523,9720.438974 11008.139362,9715.713180 11015.821037,9712.170219 11026.530281,9712.476574 11039.186562,9713.482408 11046.502160,9718.375653 11056.119979,9724.633403 11061.844816,9734.819970 11063.149037,9739.541241 11061.134961,9837.436028 11058.298340,9845.024570 11053.576658,9854.779063 11047.262411,9860.836283 11033.086666,9867.334557 11022.351559,9867.937590 11009.347431,9865.345687 11001.295958,9859.010681 10993.889439,9852.938318 10989.678826,9844.493310 10986.748051,9837.261452"/>
    <poly id="1079107465" type="leisure" color="207,245,201" fill="1" layer="-2.00" shape="11059.405808,9861.316913 11049.157252,9872.078715 11039.770775,9875.850353 11028.471248,9877.735864 11014.008793,9876.145579 11002.853943,9872.973920 10993.837989,9868.154148 10986.883880,9860.019140 10981.102908,9851.795601 10977.831391,9842.722595 10976.016729,9837.731449 10979.254020,9738.306702 10981.570902,9730.436891 10987.045103,9721.880432 10992.204934,9715.257380 11001.702555,9707.604072 11014.006333,9702.484014 11027.118532,9701.305189 11039.113288,9702.292097 11048.129692,9707.100807 11058.496255,9714.689710 11065.644303,9720.743614 11071.585226,9728.072719 11073.262156,9737.877092 11069.904281,9859.930185 11059.405808,9861.316913"/>
    <poly id="1079107465#1" type="sport" color="79,230,125" fill="1" layer="-2.00" shape="11059.405808,9861.316913 11049.157252,9872.078715 11039.770775,9875.850353 11028.471248,9877.735864 11014.008793,9876.145579 11002.853943,9872.973920 10993.837989,9868.154148 10986.883880,9860.019140 10981.102908,9851.795601 10977.831391,9842.722595 10976.016729,9837.731449 10979.254020,9738.306702 10981.570902,9730.436891 10987.045103,9721.880432 10992.204934,9715.257380 11001.702555,9707.604072 11014.006333,9702.484014 11027.118532,9701.305189 11039.113288,9702.292097 11048.129692,9707.100807 11058.496255,9714.689710 11065.644303,9720.743614 11071.585226,9728.072719 11073.262156,9737.877092 11069.904281,9859.930185 11059.405808,9861.316913"/>
    <poly id="1079107466" type="building" color="255,230,230" fill="1" layer="-1.00" shape="11489.995428,10380.580830 11491.272847,10365.133659 11556.807927,10366.390325 11555.352610,10381.011038 11489.995428,10380.580830"/>
    <poly id="1079107467" type="building" color="255,230,230" fill="1" layer="-1.00" shape="11503.754173,10472.656873 11504.079324,10461.311418 11527.292692,10462.187609 11527.906136,10455.179215 11514.448331,10454.382824 11516.200447,10385.882610 11544.407721,10386.269273 11544.743675,10454.218880 11538.115592,10453.818012 11536.790308,10463.902761 11536.488962,10474.416440 11503.754173,10472.656873"/>
    <poly id="1079107468" type="amenity" color="237,199,199" fill="1" layer="-1.00" shape="11489.498459,10506.734425 11407.447203,10379.048021 11409.749903,10349.578293 11490.666876,10350.453877 11502.580251,10350.573293 11571.142902,10351.317429 11553.905991,10453.238359 11523.209396,10510.586442 11489.498459,10506.734425"/>
    <poly id="1079111666" type="leisure" color="207,245,201" fill="1" layer="-2.00" shape="11811.212698,9402.666910 11813.334706,9299.890890 11879.941533,9300.147284 11876.946937,9404.552159 11811.212698,9402.666910"/>
    <poly id="1079111666#1" type="sport" color="79,230,125" fill="1" layer="-2.00" shape="11811.212698,9402.666910 11813.334706,9299.890890 11879.941533,9300.147284 11876.946937,9404.552159 11811.212698,9402.666910"/>
    <poly id="1079111668" type="school" color="237,199,199" fill="1" layer="-2.00" shape="11333.356434,9363.800604 11347.354646,8819.895834 11922.134912,8800.980677 11893.779008,9643.685591 11333.356434,9363.800604"/>
    <poly id="1079111669" type="building" color="255,230,230" fill="1" layer="-1.00" shape="11559.990843,9303.084704 11566.761740,9289.149082 11619.350188,9314.475504 11612.589137,9328.400282 11559.990843,9303.084704"/>
    <poly id="1079111670" type="building" color="255,230,230" fill="1" layer="-1.00" shape="11619.804105,9335.133541 11626.477442,9320.251698 11677.378063,9342.855088 11670.704343,9357.747996 11619.804105,9335.133541"/>
    <poly id="1079111671" type="building" color="255,230,230" fill="1" layer="-1.00" shape="11479.761221,9264.202402 11487.176934,9248.187412 11545.349635,9274.883236 11537.943750,9290.887377 11479.761221,9264.202402"/>
    <poly id="1079111672" type="leisure" color="207,245,201" fill="1" layer="-2.00" shape="11746.522973,9388.114189 11747.840455,9360.569721 11762.864652,9361.000482 11762.067150,9388.815150 11746.522973,9388.114189"/>
    <poly id="1079111672#1" type="sport" color="79,230,125" fill="1" layer="-2.00" shape="11746.522973,9388.114189 11747.840455,9360.569721 11762.864652,9361.000482 11762.067150,9388.815150 11746.522973,9388.114189"/>
    <poly id="1079111673" type="leisure" color="207,245,201" fill="1" layer="-2.00" shape="11747.858873,9357.584485 11749.166763,9330.039743 11764.191002,9330.470503 11763.393505,9358.285170 11747.858873,9357.584485"/>
    <poly id="1079111673#1" type="sport" color="79,230,125" fill="1" layer="-2.00" shape="11747.858873,9357.584485 11749.166763,9330.039743 11764.191002,9330.470503 11763.393505,9358.285170 11747.858873,9357.584485"/>
    <poly id="1079111674" type="leisure" color="207,245,201" fill="1" layer="-2.00" shape="11747.933714,9327.529204 11749.251185,9299.984737 11764.275467,9300.415494 11763.477660,9328.241250 11747.933714,9327.529204"/>
    <poly id="1079111674#1" type="sport" color="79,230,125" fill="1" layer="-2.00" shape="11747.933714,9327.529204 11749.251185,9299.984737 11764.275467,9300.415494 11763.477660,9328.241250 11747.933714,9327.529204"/>
    <poly id="1079111675" type="leisure" color="207,245,201" fill="1" layer="-2.00" shape="11730.245530,9356.424647 11731.553374,9328.879906 11746.577614,9329.310641 11745.780163,9357.125306 11730.245530,9356.424647"/>
    <poly id="1079111675#1" type="sport" color="79,230,125" fill="1" layer="-2.00" shape="11730.245530,9356.424647 11731.553374,9328.879906 11746.577614,9329.310641 11745.780163,9357.125306 11730.245530,9356.424647"/>
    <poly id="1079111676" type="leisure" color="207,245,201" fill="1" layer="-2.00" shape="11728.946909,9387.998768 11730.254757,9360.454026 11745.278952,9360.884764 11744.481178,9388.710519 11728.946909,9387.998768"/>
    <poly id="1079111676#1" type="sport" color="79,230,125" fill="1" layer="-2.00" shape="11728.946909,9387.998768 11730.254757,9360.454026 11745.278952,9360.884764 11744.481178,9388.710519 11728.946909,9387.998768"/>
    <poly id="1079111677" type="leisure" color="207,245,201" fill="1" layer="-2.00" shape="11731.875519,9326.680343 11733.192949,9299.135877 11748.217230,9299.566611 11747.419783,9327.381275 11731.875519,9326.680343"/>
    <poly id="1079111677#1" type="sport" color="79,230,125" fill="1" layer="-2.00" shape="11731.875519,9326.680343 11733.192949,9299.135877 11748.217230,9299.566611 11747.419783,9327.381275 11731.875519,9326.680343"/>
    <poly id="1079111678" type="building" color="255,230,230" fill="1" layer="-1.00" shape="8067.405641,7582.763486 8125.700775,7605.679810 8136.078226,7583.875454 8119.321270,7567.296234 8116.628044,7537.685402 8124.278682,7524.061517 8133.166916,7517.909042 8140.633485,7503.669505 8090.536241,7491.507151 8067.405641,7582.763486"/>
    <poly id="1115800052" type="building" color="255,230,230" fill="1" layer="-1.00" shape="11221.076002,10867.980144 11276.913427,10824.493272 11266.831988,10811.684329 11210.994551,10855.171255 11221.076002,10867.980144"/>
    <poly id="1134712528" type="water" color="181,209,209" fill="0" layer="-4.00" shape="9334.157505,10891.283277 9328.051133,10943.353642 9337.318744,10943.362138 9464.074562,10938.002516 9527.574801,10936.758548 9518.624736,10992.299685 9513.375486,11032.096463 9480.282129,11073.664209 9464.943483,11088.078233 9463.581544,11089.748738 9449.336213,11120.687422 9426.933214,11120.393595 9375.080935,11117.263541 9361.445928,11126.098868 9338.485969,11155.146896 9322.793252,11182.348450 9325.936294,11198.320946 9313.754482,11213.069188 9298.893515,11226.220588 9293.897243,11271.651909 9284.716275,11355.911400 9279.146591,11450.140916 9263.718310,11767.706531 9257.076798,11933.961960 9256.895697,11959.196521 9256.217579,12052.777284 9259.173515,12205.720486 9264.493864,12308.284881 9267.856355,12352.921975 9284.696463,12393.858282 9303.191504,12431.245590 9345.643870,12494.410678 9392.872998,12534.669938 9441.467623,12599.042713 9434.989163,12609.602262 9433.540847,12624.411854 9438.299147,12637.866565 9450.598440,12657.674037 9410.253149,12686.936696 9392.488057,12660.325102 9383.582742,12656.741647 9372.567842,12655.151479 9357.005291,12659.314416 9318.848137,12608.047841 9291.267594,12536.360264 9270.720756,12494.563619 9225.043716,12429.753178 9205.426618,12379.203666 9196.659799,12329.629006 9195.936137,12259.338996 9193.824078,12166.711072 9195.649475,12102.576027 9195.311678,11954.002893 9198.293581,11830.686273 9215.208633,11465.869171 9215.411558,11461.435248 9214.473810,11455.281779 9212.619020,11444.607020 9172.716258,11214.072537 9158.963778,11148.473280 9155.369995,11131.810988 9167.976943,11106.497107 9221.615503,11035.045694 9237.434017,11015.894532 9244.130804,11001.389692 9248.814573,10986.150520 9257.415247,10958.347473 9260.700675,10944.711200 9271.991860,10897.882924"/>
    <poly id="1134712529" type="leisure" color="207,245,201" fill="0" layer="-2.00" shape="9271.991860,10897.882924 9334.157505,10891.283277"/>
    <poly id="1134712530" type="water" color="181,209,209" fill="0" layer="-4.00" shape="6566.658884,9041.006382 6586.859061,8905.114730"/>
    <poly id="1134712531" type="natural" color="140,196,107" fill="0" layer="-4.00" shape="7729.254676,10723.190742 7817.374980,10795.388100 7889.313838,10835.584319 7962.626466,10872.989734 8055.612704,10906.102996 8189.824811,10928.343509 8558.603325,10918.317927 8612.537184,10922.157888"/>
    <poly id="1134712532" type="water" color="181,209,209" fill="0" layer="-4.00" shape="7642.586770,10652.178549 7630.558033,10640.572574 7612.249378,10632.884444 7593.354133,10609.308110 7618.635782,10552.652556 7611.309367,10538.626911 7600.833474,10527.064931 7583.434565,10523.498166 7564.347561,10525.000326 7538.603826,10543.739682 7526.426751,10555.681815 7467.251070,10518.668534 7398.416867,10477.808609 7394.600120,10430.585326 7456.585953,10386.244026 7510.189491,10310.943790 7532.171661,10261.375780 7521.223219,10211.897356 7487.453661,10132.072483 7450.335924,10061.376386 7442.428643,10049.887275 7471.093324,9946.211685 7515.781320,9931.093366 7539.367866,9970.684798 7542.907400,10063.994584 7590.595467,10052.024811 7634.576283,10025.610376 7672.561445,9920.167713 7740.170468,9822.722414 7780.148056,9828.970645 7781.718967,9882.279479 7828.444123,9940.962209 7865.469394,9942.010553 7907.950341,9896.097973 7927.506456,9859.780693 7938.109258,9776.083203 7950.570504,9699.608350 7942.428162,9623.582204 7937.712896,9572.226470 7918.482925,9560.416364 7915.442353,9522.426959 7929.624625,9421.427505 7955.159235,9319.717314 7964.301672,9251.339595 7954.514885,9196.765840 7903.984538,9163.580705 7894.641426,9093.658525 7891.192535,9073.127530 7877.021355,8988.673249 7863.964830,8977.038127 7847.280277,8984.756962 7821.179224,8997.337065 7728.388450,9038.763337 7670.420624,9086.292038 7636.933479,9068.951506 7573.669442,9085.608776 7562.571316,9113.974784 7565.079627,9134.534504 7525.295687,9157.993805 7478.137846,9187.393605 7453.204873,9159.029996 7430.526061,9123.560225 7393.989894,9105.113179 7351.134591,9091.604328 7268.514964,9100.535313 7237.025202,9122.187738 7212.292811,9159.392102 7191.212283,9140.350154 7170.261128,9153.077171 7147.287069,9164.725989 7099.986099,9199.239906 7105.063671,9229.084122 7104.613092,9263.389408 7106.366135,9292.373923 7103.061817,9336.332422 7101.277125,9363.174827 7100.353700,9386.700765 7102.784589,9400.854006 7103.445164,9441.339509 7099.622159,9458.135281 7088.449807,9480.350690 7089.235942,9498.042451 7092.837030,9507.112113 7093.104346,9534.001372 7085.215387,9540.182696 7060.139081,9544.080655 7044.713003,9543.645077 7032.443694,9540.490612 7011.267135,9543.222410 6996.643052,9550.745301 6981.487865,9549.551631 6976.558796,9541.976182 6976.828127,9514.081002 6985.232230,9489.989327 6993.667680,9482.802256 7008.471494,9478.092464 7023.383345,9469.556599 7029.558989,9460.507719 7023.595475,9443.690905 7021.479961,9436.716525 7023.929007,9422.701085 7028.229898,9416.163133 7023.891535,9396.839445 7015.082744,9362.528046 7002.618243,9329.911493 6996.754416,9318.735794 6990.175256,9296.529743 6982.398349,9271.204381 6975.439758,9234.903065 6970.321972,9197.632614 6954.517250,9173.878736 6940.730306,9151.724589 6926.257581,9153.868905 6890.516180,9180.008327 6882.882421,9195.164956 6853.878933,9201.516512 6842.074566,9218.597697 6803.692423,9156.048971 6779.466139,9138.972468 6709.267688,9109.334093 6682.126839,9086.037945 6628.608019,9085.550082 6575.406513,9073.806039 6568.672563,9048.543802 6566.658884,9041.006382"/>
    <poly id="1134712533" type="natural" color="140,196,107" fill="0" layer="-4.00" shape="9185.390850,10454.868364 9133.834061,10462.492277 9113.538685,10470.361618 9099.853627,10463.057651 9054.405649,10468.424917 9038.978084,10395.519573 9031.692183,10380.461703 9016.664576,10329.588619 8971.359090,10203.334971 8976.449704,10196.054292 8978.736265,10188.183355 8976.300861,10174.284540 8957.241779,10174.763994 8949.931178,10160.227174 8949.144085,10133.566746 8938.805911,10098.954260 8921.296465,10063.127990 8891.811500,10032.067131 8810.252281,9877.136541 8809.836910,9855.614550 8796.071161,9851.116881 8770.227532,9854.989068 8762.968752,9874.761425 8766.790959,9885.114502 8761.297976,10060.625029 8635.234954,10068.311172 8626.576030,10074.214290 8620.697050,10072.770997 8615.217568,10075.168255 8616.191958,10086.472654 8627.083370,10101.632505 8658.669873,10094.848622 8693.861454,10088.156092 8748.639247,10089.456334 8753.194129,10101.373009 8725.821622,10204.039896 8677.527930,10201.136850 8677.430873,10208.947904 8667.804482,10212.770166 8658.363483,10205.332052 8658.541388,10199.066078 8647.550609,10200.929465 8635.186101,10192.376151 8627.141886,10185.754665 8609.261624,10158.231733 8618.852935,10110.355877 8591.965893,10060.423414 8588.183143,9994.253908 8569.849988,9969.148954 8555.769630,9957.483707 8538.863563,9954.440020 8503.700976,9960.101694 8469.356102,9973.467279 8445.578757,9976.899364 8424.971363,9977.835328 8402.505349,9971.570771 8391.410351,9981.500547 8387.355771,9997.257288 8403.855376,10032.554376 8430.830488,10061.489207 8437.880373,10085.241572 8426.823961,10112.076378 8429.939887,10129.068756 8450.252311,10138.857327 8487.455547,10170.135892 8527.315149,10216.329554 8585.091274,10248.192402 8640.912673,10285.360995 8625.728791,10303.121432 8600.200636,10314.172915 8603.266855,10324.116010 8670.697913,10296.717591 8709.318505,10314.196640 8721.046335,10336.039885 8841.667208,10401.943435 8843.259595,10491.104036 8828.265851,10583.888997 8831.535280,10613.683312 8824.315592,10632.424496 8827.401651,10650.437365 8802.931115,10714.783348 8773.632717,10767.726536 8762.116750,10765.468130 8730.288365,10749.080654 8690.582288,10733.734854 8688.441204,10736.493236 8728.475109,10754.145871 8748.589798,10766.116094 8769.280394,10776.049371 8758.322693,10808.513971 8749.411616,10841.547277 8749.525374,10900.698053 8630.233462,10910.495704"/>
    <poly id="1134712534" type="leisure" color="207,245,201" fill="0" layer="-2.00" shape="6586.859061,8905.114730 6650.085600,8515.316518 6673.179638,8426.588048 6726.717631,8307.729743 6786.052130,8248.447530"/>
    <poly id="1134712535" type="water" color="181,209,209" fill="0" layer="-4.00" shape="6786.052130,8248.447530 6833.402936,8175.508901 6874.786446,8146.764496"/>
    <poly id="1134712536" type="water" color="181,209,209" fill="0" layer="-4.00" shape="6586.859061,8905.114730 6595.316498,8897.151031 6603.082700,8895.327745 6664.881937,8894.506085 6735.488066,8891.369281 6750.161366,8900.495739 6888.919391,8890.070052 6923.078415,8878.891652 6988.829585,8861.135362 7054.899183,8854.542889 7124.651864,8821.506087 7142.335585,8792.659756 7177.134458,8795.884428 7186.774258,8843.249592 7238.718398,8867.946874 7372.172980,8882.605498 7445.004433,8829.968057 7484.343942,8803.931927 7559.045189,8801.948389 7700.864885,8792.640588 7776.425753,8759.949630 7861.564270,8734.700209 7933.328867,8726.997763 8030.125973,8708.228542 8065.016670,8712.291101 8086.967764,8718.540052 8110.805115,8713.077465 8114.283937,8699.346565 8063.147926,8687.132089 8036.018994,8681.757677 7987.443509,8688.573279 7921.742381,8700.032037 7890.950218,8696.607617 7879.907821,8704.996710 7875.045073,8713.050167 7843.498702,8718.306180 7813.137733,8717.957516 7790.771503,8726.037345 7767.844248,8735.633010 7722.067091,8752.773342 7688.314576,8763.095123 7635.645814,8768.775345 7614.590746,8767.147661 7572.698698,8774.165172 7539.713725,8757.349826 7523.467920,8749.209996 7537.439949,8710.159154 7570.908798,8618.917101 7624.721702,8572.801840 7647.599453,8546.300649 7701.845480,8521.197300 7774.867324,8487.413209 7786.125850,8453.413550 7782.459998,8419.502189 7784.530070,8400.603616 7767.361410,8352.480859 7750.491130,8348.418614 7704.122213,8368.106319 7686.303277,8360.942914 7642.706863,8373.539319 7618.201327,8384.633492 7611.002141,8402.354821 7581.458910,8409.710540 7568.311433,8419.583196 7550.619320,8426.264057 7538.341882,8423.353094 7512.724102,8437.479363 7479.522670,8446.274695 7452.375724,8459.847318 7446.486963,8467.883043 7443.485488,8501.084092 7421.347682,8519.415525 7396.368532,8528.954000 7376.150934,8534.009893 7346.437377,8529.074814 7318.848070,8521.635967 7289.469095,8522.859336 7222.467558,8544.019431 7133.071939,8574.270303 7123.994940,8585.801118 7124.553596,8602.720604 7079.559961,8610.151943 7072.491720,8623.271155 7058.608019,8622.879241 7026.110574,8607.111568 7013.053039,8595.466504 7004.107912,8547.588477 6976.866904,8473.056161 6918.869815,8448.877785 6870.846955,8399.375878 6842.753643,8300.235907 6826.359440,8279.284925 6786.052130,8248.447530"/>
    <poly id="1134712537" type="leisure" color="207,245,201" fill="0" layer="-2.00" shape="6958.239746,8088.784906 6874.786446,8146.764496"/>
    <poly id="1134712538" type="water" color="181,209,209" fill="0" layer="-4.00" shape="6958.239746,8088.784906 6979.372224,8074.109006 6991.984437,8046.806323 7061.936067,8012.664335"/>